test/data/case5_exp.json
{
  "areas": [
    {
      "area": 1,
      "index": 1,
      "refbus": 4
    }
  ],
  "baseMVA": 100.0,
  "branch": [
    {
      "angmax": 30.0,
      "angmin": -30.0,
      "br_b": 0.00712,
      "br_r": 0.00281,
      "br_status": 1,
      "br_x": 0.0281,
      "f_bus": 1,
      "index": 1,
      "rate_a": 400.0,
      "rate_b": 400.0,
      "rate_c": 400.0,
      "shift": 0.0,
      "t_bus": 2,
      "construction_cost": 1,
      "tap": 0.0
    },
    {
      "angmax": 30.0,
      "angmin": -30.0,
      "br_b": 0.00658,
      "br_r": 0.00304,
      "br_status": 1,
      "br_x": 0.0304,
      "f_bus": 1,
      "index": 2,
      "rate_a": 426.0,
      "rate_b": 426.0,
      "rate_c": 426.0,
      "shift": 0.0,
      "t_bus": 4,
      "construction_cost": 1,
      "tap": 0.0
    },
    {
      "angmax": 30.0,
      "angmin": -30.0,
      "br_b": 0.00658,
      "br_r": 0.00304,
      "br_status": 1,
      "br_x": 0.0304,
      "f_bus": 1,
      "index": 100,
      "rate_a": 0.0,
      "rate_b": 0.0,
      "rate_c": 0.0,
      "shift": 0.0,
      "t_bus": 4,
      "construction_cost": 0,
      "tap": 0.0
    },
    {
      "angmax": 30.0,
      "angmin": -30.0,
      "br_b": 0.03126,
      "br_r": 0.00064,
      "br_status": 1,
      "br_x": 0.0064,
      "f_bus": 1,
      "index": 3,
      "rate_a": 426.0,
      "rate_b": 426.0,
      "rate_c": 426.0,
      "shift": 0.0,
      "t_bus": 5,
      "tap": 0.0
    },
    {
      "angmax": 30.0,
      "angmin": -30.0,
      "br_b": 0.01852,
      "br_r": 0.00108,
      "br_status": 1,
      "br_x": 0.0108,
      "f_bus": 2,
      "index": 4,
      "rate_a": 426.0,
      "rate_b": 426.0,
      "rate_c": 426.0,
      "shift": 0.0,
      "t_bus": 3,
      "tap": 0.0
    },
    {
      "angmax": 30.0,
      "angmin": -30.0,
      "br_b": 0.00674,
      "br_r": 0.00297,
      "br_status": 1,
      "br_x": 0.0297,
      "f_bus": 3,
      "index": 5,
      "rate_a": 426.0,
      "rate_b": 426.0,
      "rate_c": 426.0,
      "shift": 0.0,
      "t_bus": 4,
      "tap": 0.0
    },
    {
      "angmax": 30.0,
      "angmin": -30.0,
      "br_b": 0.00674,
      "br_r": 0.00297,
      "br_status": 1,
      "br_x": 0.0297,
      "f_bus": 4,
      "index": 6,
      "rate_a": 240.0,
      "rate_b": 240.0,
      "rate_c": 240.0,
      "shift": 0.0,
      "t_bus": 5,
      "tap": 0.0
    }
  ],
  "bus": [
    {
      "area": 1,
      "base_kv": 230.0,
      "bs": 0.0,
      "bus_i": 1,
      "bus_type": 2,
      "gs": 0.0,
      "index": 1,
      "pd": 0.0,
      "qd": 0.0,
      "va": 2.80377,
      "vm": 1.07762,
      "vmax": 1.1,
      "vmin": 0.9,
      "zone": 1
    },
    {
      "area": 1,
      "base_kv": 230.0,
      "bs": 0.0,
      "bus_i": 2,
      "bus_type": 1,
      "gs": 0.0,
      "index": 2,
      "pd": 300.0,
      "qd": 98.61,
      "va": -0.73465,
      "vm": 1.08407,
      "vmax": 1.1,
      "vmin": 0.9,
      "zone": 1
    },
    {
      "area": 1,
      "base_kv": 230.0,
      "bs": 0.0,
      "bus_i": 3,
      "bus_type": 2,
      "gs": 0.0,
      "index": 3,
      "pd": 300.0,
      "qd": 98.61,
      "va": -0.55972,
      "vm": 1.1,
      "vmax": 1.1,
      "vmin": 0.9,
      "zone": 1
    },
    {
      "area": 1,
      "base_kv": 230.0,
      "bs": 0.0,
      "bus_i": 4,
      "bus_type": 3,
      "gs": 0.0,
      "index": 4,
      "pd": 400.0,
      "qd": 131.47,
      "va": 0.0,
      "vm": 1.06414,
      "vmax": 1.1,
      "vmin": 0.9,
      "zone": 1
    },
    {
      "area": 1,
      "base_kv": 230.0,
      "bs": 0.0,
      "bus_i": 5,
      "bus_type": 2,
      "gs": 0.0,
      "index": 5,
      "pd": 0.0,
      "qd": 0.0,
      "va": 3.59033,
      "vm": 1.06907,
      "vmax": 1.1,
      "vmin": 0.9,
      "zone": 1
    }
  ],
  "dcline": [],
  "gen": [
    {
      "apf": 0.0,
      "gen_bus": 1,
      "gen_status": 1,
      "index": 1,
      "mbase": 100.0,
      "pc1": 0.0,
      "pc2": 0.0,
      "pg": 40.0,
      "pmax": 40.0,
      "pmin": 0.0,
      "qc1max": 0.0,
      "qc1min": 0.0,
      "qc2max": 0.0,
      "qc2min": 0.0,
      "qg": 30.0,
      "qmax": 30.0,
      "qmin": -30.0,
      "ramp_30": 0.0,
      "ramp_agc": 0.0,
      "ramp_q": -30.0,
      "vg": 1.07762
    },
    {
      "apf": 0.0,
      "gen_bus": 1,
      "gen_status": 1,
      "index": 2,
      "mbase": 100.0,
      "pc1": 0.0,
      "pc2": 0.0,
      "pg": 170.0,
      "pmax": 170.0,
      "pmin": 0.0,
      "qc1max": 0.0,
      "qc1min": 0.0,
      "qc2max": 0.0,
      "qc2min": 0.0,
      "qg": 127.5,
      "qmax": 127.5,
      "qmin": -127.5,
      "ramp_30": 0.0,
      "ramp_agc": 0.0,
      "ramp_q": -127.5,
      "vg": 1.07762
    },
    {
      "apf": 0.0,
      "gen_bus": 3,
      "gen_status": 1,
      "index": 3,
      "mbase": 100.0,
      "pc1": 0.0,
      "pc2": 0.0,
      "pg": 324.498,
      "pmax": 520.0,
      "pmin": 0.0,
      "qc1max": 0.0,
      "qc1min": 0.0,
      "qc2max": 0.0,
      "qc2min": 0.0,
      "qg": 390.0,
      "qmax": 390.0,
      "qmin": -390.0,
      "ramp_30": 0.0,
      "ramp_agc": 0.0,
      "ramp_q": -390.0,
      "vg": 1.1
    },
    {
      "apf": 0.0,
      "gen_bus": 4,
      "gen_status": 1,
      "index": 4,
      "mbase": 100.0,
      "pc1": 0.0,
      "pc2": 0.0,
      "pg": 0.0,
      "pmax": 200.0,
      "pmin": 0.0,
      "qc1max": 0.0,
      "qc1min": 0.0,
      "qc2max": 0.0,
      "qc2min": 0.0,
      "qg": -10.802,
      "qmax": 150.0,
      "qmin": -150.0,
      "ramp_30": 0.0,
      "ramp_agc": 0.0,
      "ramp_q": -150.0,
      "vg": 1.06414
    },
    {
      "apf": 0.0,
      "gen_bus": 5,
      "gen_status": 1,
      "index": 5,
      "mbase": 100.0,
      "pc1": 0.0,
      "pc2": 0.0,
      "pg": 470.694,
      "pmax": 600.0,
      "pmin": 0.0,
      "qc1max": 0.0,
      "qc1min": 0.0,
      "qc2max": 0.0,
      "qc2min": 0.0,
      "qg": -165.039,
      "qmax": 450.0,
      "qmin": -450.0,
      "ramp_30": 0.0,
      "ramp_agc": 0.0,
      "ramp_q": -450.0,
      "vg": 1.06907
    }
  ],
  "gencost": [
    {
      "cost": [
        0.0,
        14.0,
        0.0
      ],
      "index": 1,
      "model": 2,
      "ncost": 3,
      "shutdown": 0.0,
      "startup": 0.0
    },
    {
      "cost": [
        0.0,
        15.0,
        0.0
      ],
      "index": 2,
      "model": 2,
      "ncost": 3,
      "shutdown": 0.0,
      "startup": 0.0
    },
    {
      "cost": [
        0.0,
        30.0,
        0.0
      ],
      "index": 3,
      "model": 2,
      "ncost": 3,
      "shutdown": 0.0,
      "startup": 0.0
    },
    {
      "cost": [
        0.0,
        40.0,
        0.0
      ],
      "index": 4,
      "model": 2,
      "ncost": 3,
      "shutdown": 0.0,
      "startup": 0.0
    },
    {
      "cost": [
        0.0,
        10.0,
        0.0
      ],
      "index": 5,
      "model": 2,
      "ncost": 3,
      "shutdown": 0.0,
      "startup": 0.0
    }
  ],
  "name": "nesta_case5_pjm",
  "version": "'2'"
}